-------------------------------------------------------
          Amber 16 PMEMD                              2016
          -------------------------------------------------------

  [-O]verwriting output

File Assignments:

 Here is the input file:

AADH reference trajectory: 40ps MD
&cntrl
  imin   = 0,                    ! INP Standard MD, no minimization
  irest  = 1,                    ! INP Restart simulation
  ntx    = 5,                    ! INP Read in coordinates and velocities
  ntpr   = 500,                  ! OUT print frequencey for energy info to mdou
  ntc    = 2,                    ! RESTRAINTS SHAKE for TIP3P
  nscm   = 1000,                 ! MD frequency to remove C.o.M motion
  dt     = 0.002,                ! MD timestep
  nrespa = 1,                    ! MD RESPA time step.  Keep nrespa * dt <= 4
  nstlim = 20000,                 ! MD Number of time steps
  tempi  = 310.0,                  ! TEMP initial temperature
  temp0  = 310.0,                ! TEMP final temperature
  ntt    = 2,                    ! TEMP Temp control 3 = Langevin, 2= Anderson,
  vrand  = 1000,                 ! TEMP Anderson randomisation frequency
  ntf    = 2,                    ! POTENTIAL omit H-atoms in potential evaluati
  ntb    = 1,                    ! POTENTIAL Constant Volume PBC for non-bonded
  cut    = 12.0,                 ! POTENTIAL Non-bonded cutoff
  fswitch = 10.0,                ! POTENTIAL Switching function start length
/

Note: ig = -1. Setting random seed to    43059 based on wallclock time in
      microseconds.

--------------------------------------------------------------------------------
   1.  RESOURCE   USE:
--------------------------------------------------------------------------------

 getting new box info from bottom of inpcrd
 NATOM  =  115183 NTYPES =      45 NBONH =  107615 MBONA  =    7567
 NTHETH =   49571 MTHETA =   10290 NPHIH =   26934 MPHIA  =   18893
 NHPARM =       0 NPARM  =       0 NNB   =  213960 NRES   =   34667
 NBONA  =    7567 NTHETA =   10290 NPHIA =   18893 NUMBND =      84
 NUMANG =     194 NPTRA  =     454 NATYP =       1 NPHB   =       0
 IFBOX  =       1 NMXRS  =      45 IFCAP =       0 NEXTRA =       0
 NCOPY  =       0

     BOX TYPE: RECTILINEAR

--------------------------------------------------------------------------------
   2.  CONTROL  DATA  FOR  THE  RUN
--------------------------------------------------------------------------------

General flags:
     imin    =       0, nmropt  =       0

Nature and format of input:
     ntx     =       5, irest   =       1, ntrx    =       1

Nature and format of output:
     ntxo    =       2, ntpr    =     500, ntrx    =       1, ntwr    =   20000
     iwrap   =       0, ntwx    =       0, ntwv    =       0, ntwe    =       0
     ioutfm  =       1, ntwprt  =       0, idecomp =       0, rbornstat=      0

Potential function:
     ntf     =       2, ntb     =       1, igb     =       0, nsnb    =      25
     ipol    =       0, gbsa    =       0, iesp    =       0
     dielc   =   1.00000, cut     =  12.00000, intdiel =   1.00000

Frozen or restrained atoms:
     ibelly  =       0, ntr     =       0

Molecular dynamics:
     nstlim  =     20000, nscm    =      1000, nrespa  =         1
     t       =   0.00000, dt      =   0.00200, vlimit  =  -1.00000

Anderson (strong collision) temperature regulation:
     ig      =   43059, vrand   =    1000
     temp0   = 310.00000, tempi   = 310.00000

SHAKE:
     ntc     =       2, jfastw  =       0
     tol     =   0.00001

Ewald parameters:
     verbose =       0, ew_type =       0, nbflag  =       1, use_pme =       1
     vdwmeth =       0, eedmeth =       1, netfrc  =       1
     Box X =  123.876   Box Y =  103.149   Box Z =   88.900
     Alpha =   90.000   Beta  =   90.000   Gamma =   90.000
     NFFT1 =  128       NFFT2 =  108       NFFT3 =   96
     Cutoff=   12.000   Tol   =0.100E-04
     Ewald Coefficient =  0.22664
     Interpolation order =    4

--------------------------------------------------------------------------------
   3.  ATOMIC COORDINATES AND VELOCITIES
--------------------------------------------------------------------------------

 begin time read from input coords =  1070.000 ps

 Number of triangulated 3-point waters found:    33521

     Sum of charges from parm topology file =  -0.00000000
     Forcing neutrality...

--------------------------------------------------------------------------------
   4.  RESULTS
 NSTEP =      500   TIME(PS) =    1071.000  TEMP(K) =   310.67  PRESS =     0.0
 Etot   =   -285372.8621  EKtot   =     73445.2500  EPtot      =   -358818.1121
 BOND   =      3067.0575  ANGLE   =      7583.8940  DIHED      =      9514.9360
 UB     =       882.9239  IMP     =       500.2460  CMAP       =      -594.1812
 1-4 NB =      2504.0677  1-4 EEL =     39353.9518  VDWAALS    =     28827.9348
 EELEC  =   -450458.9427  EHBOND  =         0.0000  RESTRAINT  =         0.0000
 ------------------------------------------------------------------------------

      A V E R A G E S   O V E R      40 S T E P S

 NSTEP =    20000   TIME(PS) =    1110.000  TEMP(K) =   309.70  PRESS =     0.0
 Etot   =   -285039.5779  EKtot   =     73216.3956  EPtot      =   -358255.9735
 BOND   =      3104.3088  ANGLE   =      7617.1866  DIHED      =      9614.3032
 UB     =       888.3796  IMP     =       521.1399  CMAP       =      -598.7192
 1-4 NB =      2523.9035  1-4 EEL =     39277.6395  VDWAALS    =     29079.3404
 EELEC  =   -450283.4558  EHBOND  =         0.0000  RESTRAINT  =         0.0000
 ------------------------------------------------------------------------------

      R M S  F L U C T U A T I O N S

 NSTEP =    20000   TIME(PS) =    1110.000  TEMP(K) =     0.74  PRESS =     0.0
 Etot   =       359.9167  EKtot   =       175.4339  EPtot      =       285.7703
 BOND   =        40.7053  ANGLE   =        65.2575  DIHED      =        41.1436
 UB     =        13.0861  IMP     =        15.4524  CMAP       =        19.8216
 1-4 NB =        20.3953  1-4 EEL =        73.1659  VDWAALS    =       200.0611
 EELEC  =       440.3758  EHBOND  =         0.0000  RESTRAINT  =         0.0000
 ------------------------------------------------------------------------------
