-------------------------------------------------------
          Amber 16 PMEMD                              2016
          -------------------------------------------------------

  [-O]verwriting output

File Assignments:

 Here is the input file:

AADH reference trajectory: 20ps MD
&cntrl
  imin   = 0,                    ! INP Standard MD, no minimization
  irest  = 1,                    ! INP Restart simulation
  ntx    = 5,                    ! INP Read in coordinates and velocities
  ntpr   = 1000,                  ! OUT print frequencey for energy info to mdo
  ntwx   = 50,
  ntwv   = 50,
  ntc    = 2,                    ! RESTRAINTS SHAKE for TIP3P
  nscm   = 1000,                 ! MD frequency to remove C.o.M motion
  dt     = 0.004,                ! MD timestep
  nrespa = 1,                    ! MD RESPA time step.  Keep nrespa * dt <= 4
  nstlim = 250000,                 ! MD Number of time steps
  tempi  = 310.0,                  ! TEMP initial temperature
  temp0  = 310.0,                ! TEMP final temperature
  ntt    = 3,                    ! TEMP Temp control 3 = Langevin, 0 = NVE
  gamma_ln = 5.0,                ! TEMP collision frequency
  ntf    = 2,                    ! POTENTIAL omit H-atoms in potential evaluati
  ntb    = 1,                    ! POTENTIAL Constant Volume PBC for non-bonded
  cut    = 10.0,                 ! POTENTIAL Non-bonded cutoff
  fswitch = 8.0,                ! POTENTIAL Switching function start length
/

Note: ig = -1. Setting random seed to   109289 based on wallclock time in
      microseconds.

--------------------------------------------------------------------------------
   1.  RESOURCE   USE:
--------------------------------------------------------------------------------

 getting new box info from bottom of inpcrd
 NATOM  =  115183 NTYPES =      45 NBONH =  107615 MBONA  =    7567
 NTHETH =   49571 MTHETA =   10290 NPHIH =   26934 MPHIA  =   18893
 NHPARM =       0 NPARM  =       0 NNB   =  213960 NRES   =   34667
 NBONA  =    7567 NTHETA =   10290 NPHIA =   18893 NUMBND =      84
 NUMANG =     194 NPTRA  =     454 NATYP =       1 NPHB   =       0
 IFBOX  =       1 NMXRS  =      45 IFCAP =       0 NEXTRA =       0
 NCOPY  =       0

     BOX TYPE: RECTILINEAR

--------------------------------------------------------------------------------
   2.  CONTROL  DATA  FOR  THE  RUN
--------------------------------------------------------------------------------

General flags:
     imin    =       0, nmropt  =       0

Nature and format of input:
     ntx     =       5, irest   =       1, ntrx    =       1

Nature and format of output:
     ntxo    =       2, ntpr    =    1000, ntrx    =       1, ntwr    =  250000
     iwrap   =       0, ntwx    =      50, ntwv    =      50, ntwe    =       0
     ioutfm  =       1, ntwprt  =       0, idecomp =       0, rbornstat=      0

Potential function:
     ntf     =       2, ntb     =       1, igb     =       0, nsnb    =      25
     ipol    =       0, gbsa    =       0, iesp    =       0
     dielc   =   1.00000, cut     =  10.00000, intdiel =   1.00000

Frozen or restrained atoms:
     ibelly  =       0, ntr     =       0

Molecular dynamics:
     nstlim  =    250000, nscm    =      1000, nrespa  =         1
     t       =   0.00000, dt      =   0.00400, vlimit  =  -1.00000

Langevin dynamics temperature regulation:
     ig      =  109289
     temp0   = 310.00000, tempi   = 310.00000, gamma_ln=   5.00000

SHAKE:
     ntc     =       2, jfastw  =       0
     tol     =   0.00001

Ewald parameters:
     verbose =       0, ew_type =       0, nbflag  =       1, use_pme =       1
     vdwmeth =       0, eedmeth =       1, netfrc  =       1
     Box X =  123.876   Box Y =  103.149   Box Z =   88.900
     Alpha =   90.000   Beta  =   90.000   Gamma =   90.000
     NFFT1 =  128       NFFT2 =  108       NFFT3 =   96
     Cutoff=   10.000   Tol   =0.100E-04
     Ewald Coefficient =  0.27511
     Interpolation order =    4

--------------------------------------------------------------------------------
   3.  ATOMIC COORDINATES AND VELOCITIES
--------------------------------------------------------------------------------

 begin time read from input coords =  1070.000 ps

 Number of triangulated 3-point waters found:    33521

     Sum of charges from parm topology file =  -0.00000000
     Forcing neutrality...

--------------------------------------------------------------------------------
   4.  RESULTS
 NSTEP =     1000   TIME(PS) =    1074.000  TEMP(K) =   311.69  PRESS =     0.0
 Etot   =   -279260.6602  EKtot   =     73687.7891  EPtot      =   -352948.4493
 BOND   =      3629.2559  ANGLE   =      7964.5315  DIHED      =      9587.8576
 UB     =       942.8942  IMP     =       505.9081  CMAP       =      -594.9147
 1-4 NB =      2557.5748  1-4 EEL =     39296.1645  VDWAALS    =     31166.2738
 EELEC  =   -448003.9950  EHBOND  =         0.0000  RESTRAINT  =         0.0000
 ------------------------------------------------------------------------------

      A V E R A G E S   O V E R     250 S T E P S

 NSTEP =   250000   TIME(PS) =    2070.000  TEMP(K) =   310.27  PRESS =     0.0
 Etot   =   -279509.8830  EKtot   =     73350.7668  EPtot      =   -352860.6499
 BOND   =      3668.4139  ANGLE   =      8011.0497  DIHED      =      9648.8624
 UB     =       940.2678  IMP     =       555.1518  CMAP       =      -611.7668
 1-4 NB =      2526.0687  1-4 EEL =     39293.3668  VDWAALS    =     31277.1276
 EELEC  =   -448169.1919  EHBOND  =         0.0000  RESTRAINT  =         0.0000
 ------------------------------------------------------------------------------

      R M S  F L U C T U A T I O N S

 NSTEP =   250000   TIME(PS) =    2070.000  TEMP(K) =     0.92  PRESS =     0.0
 Etot   =       364.4659  EKtot   =       218.1566  EPtot      =       285.6459
 BOND   =        52.1606  ANGLE   =        70.8023  DIHED      =        38.3905
 UB     =        14.1128  IMP     =        17.3621  CMAP       =        24.1419
 1-4 NB =        24.9783  1-4 EEL =        87.9016  VDWAALS    =       266.4194
 EELEC  =       425.4305  EHBOND  =         0.0000  RESTRAINT  =         0.0000
 ------------------------------------------------------------------------------
