-------------------------------------------------------
          Amber 16 PMEMD                              2016
          -------------------------------------------------------

  [-O]verwriting output

File Assignments:

 Here is the input file:

AADH equilibration: 100ps MD with res on backbone
&cntrl
  imin   = 0,                    ! INP Standard MD, no minimization
  irest  = 1,                    ! INP Restart simulation
  ntx    = 5,                    ! INP Read in coordinates and velocities
  ntxo   = 1,                    ! OUT format (NetCDF) for restart file
  ntpr   = 1000,                  ! OUT print frequencey for energy info to mdo
  ntwr   = 1000,                  ! OUT write frequency for restart file
  ntwx   = 1000,                  ! OUT write frequency for coordinates
  ntr    = 1,                    ! RESTRAINTS Use restraints
  restraint_wt  = 5,            ! RESTRAINTS Harmonic restraint weights
  restraintmask = '(@CA,C,O,N) & (!:WAT)',   ! RESTRAINTS Restrain backbone onl
  ntc    = 2,                    ! RESTRAINTS SHAKE for TIP3P
  nscm   = 1000,                 ! MD frequency to remove C.o.M motion
  dt     = 0.001,                ! MD timestep
  nrespa = 1,                    ! MD RESPA time step.  Keep nrespa * dt <= 4
  nstlim = 100000,                 ! MD Number of time steps
  tempi  = 310.0                  ! TEMP initial temperature
  temp0  = 310.0,                ! TEMP final temperature
  ntt    = 3,                    ! TEMP Temp control 3 = Langevin, 0 = NVE
  gamma_ln = 1.0,                ! TEMP collision frequency
  ntp    = 1,                    ! PRESSURE Constant pressure dynamics
  barostat = 2,                  ! PRESSURE MC barostat
  pres0 = 1.01325,               ! PRESSURE the pressure in bar
  mcbarint = 100, 		 ! PRESSURE # MC sampling frequency
  taup   = 1.0,                  ! PRESSURE pressure relaxation (increase if un
  ntf    = 2,                    ! POTENTIAL omit H-atoms in potential evaluati
  ntb    = 2,                    ! POTENTIAL Constant pressurem PBC for non-bon
  cut    = 12.0,                 ! POTENTIAL Non-bonded cutoff
  fswitch = 10.0,                ! POTENTIAL Switching function start length
/

Note: ig = -1. Setting random seed to   736817 based on wallclock time in
      microseconds.

--------------------------------------------------------------------------------
   1.  RESOURCE   USE:
--------------------------------------------------------------------------------

 getting new box info from bottom of inpcrd
 NATOM  =  115183 NTYPES =      45 NBONH =  107615 MBONA  =    7567
 NTHETH =   49571 MTHETA =   10290 NPHIH =   26934 MPHIA  =   18893
 NHPARM =       0 NPARM  =       0 NNB   =  213960 NRES   =   34667
 NBONA  =    7567 NTHETA =   10290 NPHIA =   18893 NUMBND =      84
 NUMANG =     194 NPTRA  =     454 NATYP =       1 NPHB   =       0
 IFBOX  =       1 NMXRS  =      45 IFCAP =       0 NEXTRA =       0
 NCOPY  =       0

     BOX TYPE: RECTILINEAR

--------------------------------------------------------------------------------
   2.  CONTROL  DATA  FOR  THE  RUN
--------------------------------------------------------------------------------

General flags:
     imin    =       0, nmropt  =       0

Nature and format of input:
     ntx     =       5, irest   =       1, ntrx    =       1

Nature and format of output:
     ntxo    =       1, ntpr    =    1000, ntrx    =       1, ntwr    =    1000
     iwrap   =       0, ntwx    =    1000, ntwv    =       0, ntwe    =       0
     ioutfm  =       1, ntwprt  =       0, idecomp =       0, rbornstat=      0

Potential function:
     ntf     =       2, ntb     =       2, igb     =       0, nsnb    =      25
     ipol    =       0, gbsa    =       0, iesp    =       0
     dielc   =   1.00000, cut     =  12.00000, intdiel =   1.00000

Frozen or restrained atoms:
     ibelly  =       0, ntr     =       1
     restraint_wt =   5.00000

Molecular dynamics:
     nstlim  =    100000, nscm    =         0, nrespa  =         1
     t       =   0.00000, dt      =   0.00100, vlimit  =  -1.00000

Langevin dynamics temperature regulation:
     ig      =  736817
     temp0   = 310.00000, tempi   = 310.00000, gamma_ln=   1.00000

Pressure regulation:
     ntp     =       1
     pres0   =   1.01325, comp    =  44.60000, taup    =   1.00000
     Monte-Carlo Barostat:
     mcbarint  =     100

SHAKE:
     ntc     =       2, jfastw  =       0
     tol     =   0.00001

Ewald parameters:
     verbose =       0, ew_type =       0, nbflag  =       1, use_pme =       1
     vdwmeth =       0, eedmeth =       1, netfrc  =       1
     Box X =  125.223   Box Y =  104.271   Box Z =   89.866
     Alpha =   90.000   Beta  =   90.000   Gamma =   90.000
     NFFT1 =  128       NFFT2 =  108       NFFT3 =   96
     Cutoff=   12.000   Tol   =0.100E-04
     Ewald Coefficient =  0.22664
     Interpolation order =    4

    LOADING THE CONSTRAINED ATOMS AS GROUPS

   5.  REFERENCE ATOM COORDINATES

  restart created by ParmEd
     Mask (@CA,C,O,N) & (!:WAT); matches  3780 atoms

--------------------------------------------------------------------------------
   3.  ATOMIC COORDINATES AND VELOCITIES
--------------------------------------------------------------------------------

 begin time read from input coords =   170.000 ps

 Number of triangulated 3-point waters found:    33521

     Sum of charges from parm topology file =  -0.00000000
     Forcing neutrality...

--------------------------------------------------------------------------------
   4.  RESULTS
 NSTEP =     1000   TIME(PS) =     171.000  TEMP(K) =   309.64  PRESS =     0.0
 Etot   =   -279313.7748  EKtot   =     73202.5781  EPtot      =   -352516.3529
 BOND   =      3089.4069  ANGLE   =      8269.5781  DIHED      =     10445.7921
 UB     =       895.0668  IMP     =       546.4161  CMAP       =      -475.4490
 1-4 NB =      2543.8433  1-4 EEL =     39064.9359  VDWAALS    =     28940.7654
 EELEC  =   -446614.5633  EHBOND  =         0.0000  RESTRAINT  =       777.8548
 EAMBER (non-restraint)  =   -353294.2077
 EKCMT  =         0.0000  VIRIAL  =         0.0000  VOLUME     =   1173401.8170
                                                    Density    =         1.0113
 ------------------------------------------------------------------------------

      A V E R A G E S   O V E R     100 S T E P S

 NSTEP =   100000   TIME(PS) =     270.000  TEMP(K) =   310.00  PRESS =     0.0
 Etot   =   -280540.4757  EKtot   =     73286.7348  EPtot      =   -353827.2105
 BOND   =      3085.2734  ANGLE   =      8049.3044  DIHED      =     10440.2814
 UB     =       890.5120  IMP     =       575.3003  CMAP       =      -465.5707
 1-4 NB =      2565.0926  1-4 EEL =     39171.7455  VDWAALS    =     29078.9912
 EELEC  =   -447987.0268  EHBOND  =         0.0000  RESTRAINT  =       768.8862
 EAMBER (non-restraint)  =   -354596.0967
 EKCMT  =         0.0000  VIRIAL  =         0.0000  VOLUME     =   1152196.7323
                                                    Density    =         1.0299
 ------------------------------------------------------------------------------

      R M S  F L U C T U A T I O N S

 NSTEP =   100000   TIME(PS) =     270.000  TEMP(K) =     0.85  PRESS =     0.0
 Etot   =       477.2015  EKtot   =       201.3358  EPtot      =       447.8106
 BOND   =        43.3181  ANGLE   =        71.4134  DIHED      =        32.3721
 UB     =        13.4759  IMP     =        18.1647  CMAP       =        12.9421
 1-4 NB =        24.6831  1-4 EEL =        71.5274  VDWAALS    =       259.7819
 EELEC  =       576.1157  EHBOND  =         0.0000  RESTRAINT  =        20.3084
 EAMBER (non-restraint)  =       427.5022
 EKCMT  =         0.0000  VIRIAL  =         0.0000  VOLUME     =      7383.5346
                                                    Density    =         0.0065
 ------------------------------------------------------------------------------
