-------------------------------------------------------
          Amber 16 PMEMD                              2016
          -------------------------------------------------------

  [-O]verwriting output

File Assignments:

 Here is the input file:

AADH equilibration: 100ps MD with no res on backbone
&cntrl
  imin   = 0,                    ! INP Standard MD, no minimization
  irest  = 1,                    ! INP Restart simulation
  ntx    = 5,                    ! INP Read in coordinates and velocities
  ntxo   = 1,                    ! OUT format (NetCDF) for restart file
  ntpr   = 1000,                  ! OUT print frequencey for energy info to mdo
  ntwr   = 1000,                  ! OUT write frequency for restart file
  ntwx   = 1000,                  ! OUT write frequency for coordinates
  ntc    = 2,                    ! RESTRAINTS SHAKE for TIP3P
  nscm   = 1000,                 ! MD frequency to remove C.o.M motion
  dt     = 0.001,                ! MD timestep
  nrespa = 1,                    ! MD RESPA time step.  Keep nrespa * dt <= 4
  nstlim = 100000,                 ! MD Number of time steps
  tempi  = 310.0                  ! TEMP initial temperature
  temp0  = 310.0,                ! TEMP final temperature
  ntt    = 3,                    ! TEMP Temp control 3 = Langevin, 0 = NVE
  gamma_ln = 3.0,                ! TEMP collision frequency
  ntp    = 1,                    ! PRESSURE Constant pressure dynamics
  barostat = 2,                  ! PRESSURE MC barostat
  pres0 = 1.01325,               ! PRESSURE the pressure in bar
  mcbarint = 100, 		 ! PRESSURE # MC sampling frequency
  taup   = 1.0,                  ! PRESSURE pressure relaxation (increase if un
  ntf    = 2,                    ! POTENTIAL omit H-atoms in potential evaluati
  ntb    = 2,                    ! POTENTIAL Constant pressurem PBC for non-bon
  cut    = 12.0,                 ! POTENTIAL Non-bonded cutoff
  fswitch = 10.0,                ! POTENTIAL Switching function start length
/

Note: ig = -1. Setting random seed to   704091 based on wallclock time in
      microseconds.

--------------------------------------------------------------------------------
   1.  RESOURCE   USE:
--------------------------------------------------------------------------------

 getting new box info from bottom of inpcrd
 NATOM  =  115183 NTYPES =      45 NBONH =  107615 MBONA  =    7567
 NTHETH =   49571 MTHETA =   10290 NPHIH =   26934 MPHIA  =   18893
 NHPARM =       0 NPARM  =       0 NNB   =  213960 NRES   =   34667
 NBONA  =    7567 NTHETA =   10290 NPHIA =   18893 NUMBND =      84
 NUMANG =     194 NPTRA  =     454 NATYP =       1 NPHB   =       0
 IFBOX  =       1 NMXRS  =      45 IFCAP =       0 NEXTRA =       0
 NCOPY  =       0

     BOX TYPE: RECTILINEAR

--------------------------------------------------------------------------------
   2.  CONTROL  DATA  FOR  THE  RUN
--------------------------------------------------------------------------------

General flags:
     imin    =       0, nmropt  =       0

Nature and format of input:
     ntx     =       5, irest   =       1, ntrx    =       1

Nature and format of output:
     ntxo    =       1, ntpr    =    1000, ntrx    =       1, ntwr    =    1000
     iwrap   =       0, ntwx    =    1000, ntwv    =       0, ntwe    =       0
     ioutfm  =       1, ntwprt  =       0, idecomp =       0, rbornstat=      0

Potential function:
     ntf     =       2, ntb     =       2, igb     =       0, nsnb    =      25
     ipol    =       0, gbsa    =       0, iesp    =       0
     dielc   =   1.00000, cut     =  12.00000, intdiel =   1.00000

Frozen or restrained atoms:
     ibelly  =       0, ntr     =       0

Molecular dynamics:
     nstlim  =    100000, nscm    =      1000, nrespa  =         1
     t       =   0.00000, dt      =   0.00100, vlimit  =  -1.00000

Langevin dynamics temperature regulation:
     ig      =  704091
     temp0   = 310.00000, tempi   = 310.00000, gamma_ln=   3.00000

Pressure regulation:
     ntp     =       1
     pres0   =   1.01325, comp    =  44.60000, taup    =   1.00000
     Monte-Carlo Barostat:
     mcbarint  =     100

SHAKE:
     ntc     =       2, jfastw  =       0
     tol     =   0.00001

Ewald parameters:
     verbose =       0, ew_type =       0, nbflag  =       1, use_pme =       1
     vdwmeth =       0, eedmeth =       1, netfrc  =       1
     Box X =  123.999   Box Y =  103.252   Box Z =   88.988
     Alpha =   90.000   Beta  =   90.000   Gamma =   90.000
     NFFT1 =  128       NFFT2 =  108       NFFT3 =   96
     Cutoff=   12.000   Tol   =0.100E-04
     Ewald Coefficient =  0.22664
     Interpolation order =    4

--------------------------------------------------------------------------------
   3.  ATOMIC COORDINATES AND VELOCITIES
--------------------------------------------------------------------------------

 begin time read from input coords =   870.000 ps

 Number of triangulated 3-point waters found:    33521

     Sum of charges from parm topology file =  -0.00000000
     Forcing neutrality...

--------------------------------------------------------------------------------
   4.  RESULTS
 NSTEP =     1000   TIME(PS) =     871.000  TEMP(K) =   311.40  PRESS =     0.0
 Etot   =   -284907.8546  EKtot   =     73617.9453  EPtot      =   -358525.7999
 BOND   =      3045.8101  ANGLE   =      7467.9111  DIHED      =      9666.8641
 UB     =       880.0956  IMP     =       513.2873  CMAP       =      -590.9555
 1-4 NB =      2523.1446  1-4 EEL =     39289.7292  VDWAALS    =     29211.9213
 EELEC  =   -450533.6077  EHBOND  =         0.0000  RESTRAINT  =         0.0000
 EKCMT  =         0.0000  VIRIAL  =         0.0000  VOLUME     =   1139326.3226
                                                    Density    =         1.0415
 ------------------------------------------------------------------------------

      A V E R A G E S   O V E R     100 S T E P S

 NSTEP =   100000   TIME(PS) =     970.000  TEMP(K) =   310.08  PRESS =     0.0
 Etot   =   -285450.6271  EKtot   =     73305.3577  EPtot      =   -358755.9848
 BOND   =      3043.8059  ANGLE   =      7512.9652  DIHED      =      9636.3821
 UB     =       872.6941  IMP     =       514.9790  CMAP       =      -580.5978
 1-4 NB =      2509.2592  1-4 EEL =     39316.6151  VDWAALS    =     29107.6869
 EELEC  =   -450689.7746  EHBOND  =         0.0000  RESTRAINT  =         0.0000
 EKCMT  =         0.0000  VIRIAL  =         0.0000  VOLUME     =   1138503.9938
                                                    Density    =         1.0423
 ------------------------------------------------------------------------------

      R M S  F L U C T U A T I O N S

 NSTEP =   100000   TIME(PS) =     970.000  TEMP(K) =     0.84  PRESS =     0.0
 Etot   =       367.1074  EKtot   =       199.1752  EPtot      =       290.1187
 BOND   =        41.3711  ANGLE   =        70.2287  DIHED      =        41.8897
 UB     =        13.7584  IMP     =        16.2891  CMAP       =        20.9918
 1-4 NB =        24.7167  1-4 EEL =        83.7791  VDWAALS    =       277.2559
 EELEC  =       480.7645  EHBOND  =         0.0000  RESTRAINT  =         0.0000
 EKCMT  =         0.0000  VIRIAL  =         0.0000  VOLUME     =      1335.4563
                                                    Density    =         0.0012
 ------------------------------------------------------------------------------
