-------------------------------------------------------
          Amber 16 PMEMD                              2016
          -------------------------------------------------------

  [-O]verwriting output

File Assignments:

 Here is the input file:

AADH equilibration: 100ps MD with res on backbone
&cntrl
  imin   = 0,                    ! INP Standard MD, no minimization
  irest  = 1,                    ! INP Restart simulation
  ntx    = 5,                    ! INP Read in coordinates and velocities
  ntxo   = 1,                    ! OUT format (NetCDF) for restart file
  ntpr   = 1000,                  ! OUT print frequencey for energy info to mdo
  ntwr   = 1000,                  ! OUT write frequency for restart file
  ntwx   = 1000,                  ! OUT write frequency for coordinates
  ntr    = 1,                    ! RESTRAINTS Use restraints
  restraint_wt  = 10,            ! RESTRAINTS Harmonic restraint weights
  restraintmask = '(@CA,C,O,N) & (!:WAT)',   ! RESTRAINTS Restrain backbone onl
  ntc    = 2,                    ! RESTRAINTS SHAKE for TIP3P
  nscm   = 1000,                 ! MD frequency to remove C.o.M motion
  dt     = 0.001,                ! MD timestep
  nrespa = 1,                    ! MD RESPA time step.  Keep nrespa * dt <= 4
  nstlim = 100000,                 ! MD Number of time steps
  tempi  = 310.0                  ! TEMP initial temperature
  temp0  = 310.0,                ! TEMP final temperature
  ntt    = 3,                    ! TEMP Temp control 3 = Langevin, 0 = NVE
  gamma_ln = 1.0,                ! TEMP collision frequency
  ntp    = 1,                    ! PRESSURE Constant pressure dynamics
  pres0 = 1.01325,               ! PRESSURE the pressure in bar
  barostat = 2,                  ! PRESSURE MC barostat
  mcbarint = 100, 		 ! PRESSURE # MC sampling frequency
  taup   = 1.0,                  ! PRESSURE pressure relaxation (increase if un
  ntf    = 2,                    ! POTENTIAL omit H-atoms in potential evaluati
  ntb    = 2,                    ! POTENTIAL Constant pressurem PBC for non-bon
  cut    = 12.0,                 ! POTENTIAL Non-bonded cutoff
  fswitch = 10.0,                ! POTENTIAL Switching function start length
/

Note: ig = -1. Setting random seed to   765235 based on wallclock time in
      microseconds.

--------------------------------------------------------------------------------
   1.  RESOURCE   USE:
--------------------------------------------------------------------------------

 getting new box info from bottom of inpcrd
 NATOM  =  115183 NTYPES =      45 NBONH =  107615 MBONA  =    7567
 NTHETH =   49571 MTHETA =   10290 NPHIH =   26934 MPHIA  =   18893
 NHPARM =       0 NPARM  =       0 NNB   =  213960 NRES   =   34667
 NBONA  =    7567 NTHETA =   10290 NPHIA =   18893 NUMBND =      84
 NUMANG =     194 NPTRA  =     454 NATYP =       1 NPHB   =       0
 IFBOX  =       1 NMXRS  =      45 IFCAP =       0 NEXTRA =       0
 NCOPY  =       0

     BOX TYPE: RECTILINEAR

--------------------------------------------------------------------------------
   2.  CONTROL  DATA  FOR  THE  RUN
--------------------------------------------------------------------------------

General flags:
     imin    =       0, nmropt  =       0

Nature and format of input:
     ntx     =       5, irest   =       1, ntrx    =       1

Nature and format of output:
     ntxo    =       1, ntpr    =    1000, ntrx    =       1, ntwr    =    1000
     iwrap   =       0, ntwx    =    1000, ntwv    =       0, ntwe    =       0
     ioutfm  =       1, ntwprt  =       0, idecomp =       0, rbornstat=      0

Potential function:
     ntf     =       2, ntb     =       2, igb     =       0, nsnb    =      25
     ipol    =       0, gbsa    =       0, iesp    =       0
     dielc   =   1.00000, cut     =  12.00000, intdiel =   1.00000

Frozen or restrained atoms:
     ibelly  =       0, ntr     =       1
     restraint_wt =  10.00000

Molecular dynamics:
     nstlim  =    100000, nscm    =         0, nrespa  =         1
     t       =   0.00000, dt      =   0.00100, vlimit  =  -1.00000

Langevin dynamics temperature regulation:
     ig      =  765235
     temp0   = 310.00000, tempi   = 310.00000, gamma_ln=   1.00000

Pressure regulation:
     ntp     =       1
     pres0   =   1.01325, comp    =  44.60000, taup    =   1.00000
     Monte-Carlo Barostat:
     mcbarint  =     100

SHAKE:
     ntc     =       2, jfastw  =       0
     tol     =   0.00001

Ewald parameters:
     verbose =       0, ew_type =       0, nbflag  =       1, use_pme =       1
     vdwmeth =       0, eedmeth =       1, netfrc  =       1
     Box X =  126.667   Box Y =  105.473   Box Z =   90.903
     Alpha =   90.000   Beta  =   90.000   Gamma =   90.000
     NFFT1 =  128       NFFT2 =  108       NFFT3 =   96
     Cutoff=   12.000   Tol   =0.100E-04
     Ewald Coefficient =  0.22664
     Interpolation order =    4

    LOADING THE CONSTRAINED ATOMS AS GROUPS

   5.  REFERENCE ATOM COORDINATES

  restart created by ParmEd
     Mask (@CA,C,O,N) & (!:WAT); matches  3780 atoms

--------------------------------------------------------------------------------
   3.  ATOMIC COORDINATES AND VELOCITIES
--------------------------------------------------------------------------------

 begin time read from input coords =    70.000 ps

 Number of triangulated 3-point waters found:    33521

     Sum of charges from parm topology file =  -0.00000000
     Forcing neutrality...

--------------------------------------------------------------------------------
   4.  RESULTS
 NSTEP =     1000   TIME(PS) =      71.000  TEMP(K) =   309.62  PRESS =     0.0
 Etot   =   -278561.0143  EKtot   =     73197.5312  EPtot      =   -351758.5455
 BOND   =      3107.1949  ANGLE   =      8113.1331  DIHED      =     10492.3538
 UB     =       902.0000  IMP     =       553.9718  CMAP       =      -501.6143
 1-4 NB =      2556.6651  1-4 EEL =     39225.8391  VDWAALS    =     29466.3644
 EELEC  =   -446538.6711  EHBOND  =         0.0000  RESTRAINT  =       864.2177
 EAMBER (non-restraint)  =   -352622.7632
 EKCMT  =         0.0000  VIRIAL  =         0.0000  VOLUME     =   1214458.6539
                                                    Density    =         0.9771
 ------------------------------------------------------------------------------

      A V E R A G E S   O V E R     100 S T E P S

 NSTEP =   100000   TIME(PS) =     170.000  TEMP(K) =   309.82  PRESS =     0.0
 Etot   =   -279535.2528  EKtot   =     73243.8646  EPtot      =   -352779.1174
 BOND   =      3056.6994  ANGLE   =      8025.4738  DIHED      =     10476.4407
 UB     =       890.7466  IMP     =       572.4899  CMAP       =      -482.7482
 1-4 NB =      2579.5381  1-4 EEL =     39185.3220  VDWAALS    =     29157.7837
 EELEC  =   -447117.1606  EHBOND  =         0.0000  RESTRAINT  =       876.2972
 EAMBER (non-restraint)  =   -353655.4146
 EKCMT  =         0.0000  VIRIAL  =         0.0000  VOLUME     =   1188553.5810
                                                    Density    =         0.9985
 ------------------------------------------------------------------------------

      R M S  F L U C T U A T I O N S

 NSTEP =   100000   TIME(PS) =     170.000  TEMP(K) =     0.98  PRESS =     0.0
 Etot   =       385.0373  EKtot   =       231.1226  EPtot      =       315.8227
 BOND   =        44.1480  ANGLE   =        61.9151  DIHED      =        36.6132
 UB     =        13.3873  IMP     =        19.0062  CMAP       =        12.9838
 1-4 NB =        24.5462  1-4 EEL =        81.4159  VDWAALS    =       294.3615
 EELEC  =       477.6120  EHBOND  =         0.0000  RESTRAINT  =        21.4996
 EAMBER (non-restraint)  =       294.3231
 EKCMT  =         0.0000  VIRIAL  =         0.0000  VOLUME     =     12290.8872
                                                    Density    =         0.0103
 ------------------------------------------------------------------------------
