-------------------------------------------------------
          Amber 16 PMEMD                              2016
          -------------------------------------------------------

  [-O]verwriting output

File Assignments:

 Here is the input file:

AADH heating: 10ps MD with res on backbone
&cntrl
  imin   = 0,                    ! INP Standard MD, no minimization
  irest  = 1,                    ! INP Restart simulation
  ntx    = 5,                    ! INP Read in coordinates and velocities
  ntxo   = 1,                    ! OUT format (NetCDF) for restart file
  ntpr   = 1000,                  ! OUT print frequencey for energy info to mdo
  ntwr   = 1000,                  ! OUT write frequency for restart file
  ntwx   = 1000,                  ! OUT write frequency for coordinates
  ntr    = 1,                    ! RESTRAINTS Use restraints
  restraint_wt  = 10,            ! RESTRAINTS Harmonic restraint weights
  restraintmask = '(@CA,C,O,N) & (!:WAT)',   ! RESTRAINTS Restrain backbone onl
  ntc    = 2,                    ! RESTRAINTS SHAKE for TIP3P
  nscm   = 1000,                 ! MD frequency to remove C.o.M motion
  dt     = 0.001,                ! MD timestep
  nrespa = 1,                    ! MD RESPA time step.  Keep nrespa * dt <= 4
  nstlim = 10000,                 ! MD Number of time steps
  tempi  = 100.0,                  ! TEMP initial temperature
  temp0  = 150.0,                ! TEMP final temperature
  ntt    = 3,                    ! TEMP Temp control 3 = Langevin, 0 = NVE
  gamma_ln = 1.0,                ! TEMP collision frequency
  ntf    = 2,                    ! POTENTIAL omit H-atoms in potential evaluati
  ntb    = 1,                    ! POTENTIAL Constant Volume PBC for non-bonded
  cut    = 12.0,                 ! POTENTIAL Non-bonded cutoff
  fswitch = 10.0,                ! POTENTIAL Switching function start length
/

Note: ig = -1. Setting random seed to    85123 based on wallclock time in
      microseconds.

--------------------------------------------------------------------------------
   1.  RESOURCE   USE:
--------------------------------------------------------------------------------

 getting new box info from bottom of inpcrd
 NATOM  =  115183 NTYPES =      45 NBONH =  107615 MBONA  =    7567
 NTHETH =   49571 MTHETA =   10290 NPHIH =   26934 MPHIA  =   18893
 NHPARM =       0 NPARM  =       0 NNB   =  213960 NRES   =   34667
 NBONA  =    7567 NTHETA =   10290 NPHIA =   18893 NUMBND =      84
 NUMANG =     194 NPTRA  =     454 NATYP =       1 NPHB   =       0
 IFBOX  =       1 NMXRS  =      45 IFCAP =       0 NEXTRA =       0
 NCOPY  =       0

     BOX TYPE: RECTILINEAR

--------------------------------------------------------------------------------
   2.  CONTROL  DATA  FOR  THE  RUN
--------------------------------------------------------------------------------

General flags:
     imin    =       0, nmropt  =       0

Nature and format of input:
     ntx     =       5, irest   =       1, ntrx    =       1

Nature and format of output:
     ntxo    =       1, ntpr    =    1000, ntrx    =       1, ntwr    =    1000
     iwrap   =       0, ntwx    =    1000, ntwv    =       0, ntwe    =       0
     ioutfm  =       1, ntwprt  =       0, idecomp =       0, rbornstat=      0

Potential function:
     ntf     =       2, ntb     =       1, igb     =       0, nsnb    =      25
     ipol    =       0, gbsa    =       0, iesp    =       0
     dielc   =   1.00000, cut     =  12.00000, intdiel =   1.00000

Frozen or restrained atoms:
     ibelly  =       0, ntr     =       1
     restraint_wt =  10.00000

Molecular dynamics:
     nstlim  =     10000, nscm    =         0, nrespa  =         1
     t       =   0.00000, dt      =   0.00100, vlimit  =  -1.00000

Langevin dynamics temperature regulation:
     ig      =   85123
     temp0   = 150.00000, tempi   = 100.00000, gamma_ln=   1.00000

SHAKE:
     ntc     =       2, jfastw  =       0
     tol     =   0.00001

Ewald parameters:
     verbose =       0, ew_type =       0, nbflag  =       1, use_pme =       1
     vdwmeth =       0, eedmeth =       1, netfrc  =       1
     Box X =  126.667   Box Y =  105.473   Box Z =   90.903
     Alpha =   90.000   Beta  =   90.000   Gamma =   90.000
     NFFT1 =  128       NFFT2 =  108       NFFT3 =   96
     Cutoff=   12.000   Tol   =0.100E-04
     Ewald Coefficient =  0.22664
     Interpolation order =    4

    LOADING THE CONSTRAINED ATOMS AS GROUPS

   5.  REFERENCE ATOM COORDINATES

  restart created by ParmEd
     Mask (@CA,C,O,N) & (!:WAT); matches  3780 atoms

--------------------------------------------------------------------------------
   3.  ATOMIC COORDINATES AND VELOCITIES
--------------------------------------------------------------------------------

 begin time read from input coords =    20.000 ps

 Number of triangulated 3-point waters found:    33521

     Sum of charges from parm topology file =  -0.00000000
     Forcing neutrality...

--------------------------------------------------------------------------------
   4.  RESULTS
 NSTEP =     1000   TIME(PS) =      21.000  TEMP(K) =   130.91  PRESS =     0.0
 Etot   =   -392408.1016  EKtot   =     30949.4688  EPtot      =   -423357.5704
 BOND   =      1886.3585  ANGLE   =      5377.9956  DIHED      =     10063.4280
 UB     =       500.6852  IMP     =       348.2355  CMAP       =      -533.1777
 1-4 NB =      2357.7994  1-4 EEL =     39148.0685  VDWAALS    =     50507.7780
 EELEC  =   -533371.2870  EHBOND  =         0.0000  RESTRAINT  =       356.5457
 EAMBER (non-restraint)  =   -423714.1161
 ------------------------------------------------------------------------------

      A V E R A G E S   O V E R      10 S T E P S

 NSTEP =    10000   TIME(PS) =      30.000  TEMP(K) =   147.12  PRESS =     0.0
 Etot   =   -384919.4967  EKtot   =     34780.7871  EPtot      =   -419700.2838
 BOND   =      1964.0098  ANGLE   =      5591.7420  DIHED      =     10098.8015
 UB     =       529.8241  IMP     =       363.2001  CMAP       =      -534.2909
 1-4 NB =      2397.3699  1-4 EEL =     39167.5757  VDWAALS    =     48898.5774
 EELEC  =   -528573.0708  EHBOND  =         0.0000  RESTRAINT  =       395.9774
 EAMBER (non-restraint)  =   -420096.2612
 ------------------------------------------------------------------------------

      R M S  F L U C T U A T I O N S

 NSTEP =    10000   TIME(PS) =      30.000  TEMP(K) =     5.93  PRESS =     0.0
 Etot   =      2641.7587  EKtot   =      1403.0739  EPtot      =      1299.8651
 BOND   =        32.7043  ANGLE   =        87.8728  DIHED      =        19.6519
 UB     =        10.6688  IMP     =         8.6684  CMAP       =         5.7699
 1-4 NB =        16.7615  1-4 EEL =        69.0658  VDWAALS    =       618.0123
 EELEC  =      1738.4161  EHBOND  =         0.0000  RESTRAINT  =        16.6155
 EAMBER (non-restraint)  =      1283.2496
 ------------------------------------------------------------------------------
