-------------------------------------------------------
          Amber 16 PMEMD                              2016
          -------------------------------------------------------

  [-O]verwriting output

File Assignments:

 Here is the input file:

AADH heating: 10ps MD with res on backbone
&cntrl
  imin   = 0,                    ! INP Standard MD, no minimization
  irest  = 1,                    ! INP Restart simulation
  ntx    = 5,                    ! INP Read in coordinates and velocities
  ntxo   = 1,                    ! OUT format (NetCDF) for restart file
  ntpr   = 1000,                  ! OUT print frequencey for energy info to mdo
  ntwr   = 1000,                  ! OUT write frequency for restart file
  ntwx   = 1000,                  ! OUT write frequency for coordinates
  ntr    = 1,                    ! RESTRAINTS Use restraints
  restraint_wt  = 10,            ! RESTRAINTS Harmonic restraint weights
  restraintmask = '(@CA,C,O,N) & (!:WAT)',   ! RESTRAINTS Restrain backbone onl
  ntc    = 2,                    ! RESTRAINTS SHAKE for TIP3P
  nscm   = 1000,                 ! MD frequency to remove C.o.M motion
  dt     = 0.001,                ! MD timestep
  nrespa = 1,                    ! MD RESPA time step.  Keep nrespa * dt <= 4
  nstlim = 10000,                 ! MD Number of time steps
  tempi  = 150.0,                  ! TEMP initial temperature
  temp0  = 200.0,                ! TEMP final temperature
  ntt    = 3,                    ! TEMP Temp control 3 = Langevin, 0 = NVE
  gamma_ln = 1.0,                ! TEMP collision frequency
  ntf    = 2,                    ! POTENTIAL omit H-atoms in potential evaluati
  ntb    = 1,                    ! POTENTIAL Constant Volume PBC for non-bonded
  cut    = 12.0,                 ! POTENTIAL Non-bonded cutoff
  fswitch = 10.0,                ! POTENTIAL Switching function start length
/

Note: ig = -1. Setting random seed to   659357 based on wallclock time in
      microseconds.

--------------------------------------------------------------------------------
   1.  RESOURCE   USE:
--------------------------------------------------------------------------------

 getting new box info from bottom of inpcrd
 NATOM  =  115183 NTYPES =      45 NBONH =  107615 MBONA  =    7567
 NTHETH =   49571 MTHETA =   10290 NPHIH =   26934 MPHIA  =   18893
 NHPARM =       0 NPARM  =       0 NNB   =  213960 NRES   =   34667
 NBONA  =    7567 NTHETA =   10290 NPHIA =   18893 NUMBND =      84
 NUMANG =     194 NPTRA  =     454 NATYP =       1 NPHB   =       0
 IFBOX  =       1 NMXRS  =      45 IFCAP =       0 NEXTRA =       0
 NCOPY  =       0

     BOX TYPE: RECTILINEAR

--------------------------------------------------------------------------------
   2.  CONTROL  DATA  FOR  THE  RUN
--------------------------------------------------------------------------------

General flags:
     imin    =       0, nmropt  =       0

Nature and format of input:
     ntx     =       5, irest   =       1, ntrx    =       1

Nature and format of output:
     ntxo    =       1, ntpr    =    1000, ntrx    =       1, ntwr    =    1000
     iwrap   =       0, ntwx    =    1000, ntwv    =       0, ntwe    =       0
     ioutfm  =       1, ntwprt  =       0, idecomp =       0, rbornstat=      0

Potential function:
     ntf     =       2, ntb     =       1, igb     =       0, nsnb    =      25
     ipol    =       0, gbsa    =       0, iesp    =       0
     dielc   =   1.00000, cut     =  12.00000, intdiel =   1.00000

Frozen or restrained atoms:
     ibelly  =       0, ntr     =       1
     restraint_wt =  10.00000

Molecular dynamics:
     nstlim  =     10000, nscm    =         0, nrespa  =         1
     t       =   0.00000, dt      =   0.00100, vlimit  =  -1.00000

Langevin dynamics temperature regulation:
     ig      =  659357
     temp0   = 200.00000, tempi   = 150.00000, gamma_ln=   1.00000

SHAKE:
     ntc     =       2, jfastw  =       0
     tol     =   0.00001

Ewald parameters:
     verbose =       0, ew_type =       0, nbflag  =       1, use_pme =       1
     vdwmeth =       0, eedmeth =       1, netfrc  =       1
     Box X =  126.667   Box Y =  105.473   Box Z =   90.903
     Alpha =   90.000   Beta  =   90.000   Gamma =   90.000
     NFFT1 =  128       NFFT2 =  108       NFFT3 =   96
     Cutoff=   12.000   Tol   =0.100E-04
     Ewald Coefficient =  0.22664
     Interpolation order =    4

    LOADING THE CONSTRAINED ATOMS AS GROUPS

   5.  REFERENCE ATOM COORDINATES

  restart created by ParmEd
     Mask (@CA,C,O,N) & (!:WAT); matches  3780 atoms

--------------------------------------------------------------------------------
   3.  ATOMIC COORDINATES AND VELOCITIES
--------------------------------------------------------------------------------

 begin time read from input coords =    30.000 ps

 Number of triangulated 3-point waters found:    33521

     Sum of charges from parm topology file =  -0.00000000
     Forcing neutrality...

--------------------------------------------------------------------------------
   4.  RESULTS
 NSTEP =     1000   TIME(PS) =      31.000  TEMP(K) =   178.53  PRESS =     0.0
 Etot   =   -368885.0149  EKtot   =     42205.2812  EPtot      =   -411090.2961
 BOND   =      2181.5695  ANGLE   =      6055.0138  DIHED      =     10226.8017
 UB     =       605.6249  IMP     =       418.0075  CMAP       =      -530.4696
 1-4 NB =      2421.3881  1-4 EEL =     39157.5499  VDWAALS    =     46980.4796
 EELEC  =   -519104.4318  EHBOND  =         0.0000  RESTRAINT  =       498.1702
 EAMBER (non-restraint)  =   -411588.4664
 ------------------------------------------------------------------------------

      A V E R A G E S   O V E R      10 S T E P S

 NSTEP =    10000   TIME(PS) =      40.000  TEMP(K) =   195.78  PRESS =     0.0
 Etot   =   -358628.5334  EKtot   =     46284.4383  EPtot      =   -404912.9716
 BOND   =      2285.3874  ANGLE   =      6301.2146  DIHED      =     10229.4081
 UB     =       636.1269  IMP     =       435.5168  CMAP       =      -517.1974
 1-4 NB =      2460.7835  1-4 EEL =     39147.9190  VDWAALS    =     44437.2732
 EELEC  =   -510859.9216  EHBOND  =         0.0000  RESTRAINT  =       530.5179
 EAMBER (non-restraint)  =   -405443.4895
 ------------------------------------------------------------------------------

      R M S  F L U C T U A T I O N S

 NSTEP =    10000   TIME(PS) =      40.000  TEMP(K) =     6.37  PRESS =     0.0
 Etot   =      3893.0646  EKtot   =      1505.3344  EPtot      =      2396.6738
 BOND   =        37.7608  ANGLE   =       105.7846  DIHED      =        22.7568
 UB     =        11.3217  IMP     =        11.5201  CMAP       =         9.5617
 1-4 NB =        20.6419  1-4 EEL =        35.9312  VDWAALS    =      1208.8004
 EELEC  =      3379.5261  EHBOND  =         0.0000  RESTRAINT  =        18.3348
 EAMBER (non-restraint)  =      2378.3389
 ------------------------------------------------------------------------------
