-------------------------------------------------------
          Amber 16 PMEMD                              2016
          -------------------------------------------------------

  [-O]verwriting output

File Assignments:

 Here is the input file:

AADH reference trajectory: 20ps MD
&cntrl
  imin   = 0,                    ! INP Standard MD, no minimization
  irest  = 1,                    ! INP Restart simulation
  ntx    = 5,                    ! INP Read in coordinates and velocities
  ntpr   = 500,                  ! OUT print frequencey for energy info to mdou
  ntc    = 2,                    ! RESTRAINTS SHAKE for TIP3P
  nscm   = 1000,                 ! MD frequency to remove C.o.M motion
  dt     = 0.004,                ! MD timestep
  nrespa = 1,                    ! MD RESPA time step.  Keep nrespa * dt <= 4
  nstlim = 20000,                 ! MD Number of time steps
  tempi  = 310.0,                  ! TEMP initial temperature
  temp0  = 310.0,                ! TEMP final temperature
  ntt    = 3,                    ! TEMP Temp control 3 = Langevin, 0 = NVE
  gamma_ln = 5.0,                ! TEMP collision frequency
  ntf    = 2,                    ! POTENTIAL omit H-atoms in potential evaluati
  ntb    = 1,                    ! POTENTIAL Constant Volume PBC for non-bonded
  cut    = 12.0,                 ! POTENTIAL Non-bonded cutoff
  fswitch = 10.0,                ! POTENTIAL Switching function start length
/

Note: ig = -1. Setting random seed to   485596 based on wallclock time in
      microseconds.

--------------------------------------------------------------------------------
   1.  RESOURCE   USE:
--------------------------------------------------------------------------------

 getting new box info from bottom of inpcrd
 NATOM  =  115183 NTYPES =      45 NBONH =  107615 MBONA  =    7567
 NTHETH =   49571 MTHETA =   10290 NPHIH =   26934 MPHIA  =   18893
 NHPARM =       0 NPARM  =       0 NNB   =  213960 NRES   =   34667
 NBONA  =    7567 NTHETA =   10290 NPHIA =   18893 NUMBND =      84
 NUMANG =     194 NPTRA  =     454 NATYP =       1 NPHB   =       0
 IFBOX  =       1 NMXRS  =      45 IFCAP =       0 NEXTRA =       0
 NCOPY  =       0

     BOX TYPE: RECTILINEAR

--------------------------------------------------------------------------------
   2.  CONTROL  DATA  FOR  THE  RUN
--------------------------------------------------------------------------------

General flags:
     imin    =       0, nmropt  =       0

Nature and format of input:
     ntx     =       5, irest   =       1, ntrx    =       1

Nature and format of output:
     ntxo    =       2, ntpr    =     500, ntrx    =       1, ntwr    =   20000
     iwrap   =       0, ntwx    =       0, ntwv    =       0, ntwe    =       0
     ioutfm  =       1, ntwprt  =       0, idecomp =       0, rbornstat=      0

Potential function:
     ntf     =       2, ntb     =       1, igb     =       0, nsnb    =      25
     ipol    =       0, gbsa    =       0, iesp    =       0
     dielc   =   1.00000, cut     =  12.00000, intdiel =   1.00000

Frozen or restrained atoms:
     ibelly  =       0, ntr     =       0

Molecular dynamics:
     nstlim  =     20000, nscm    =      1000, nrespa  =         1
     t       =   0.00000, dt      =   0.00400, vlimit  =  -1.00000

Langevin dynamics temperature regulation:
     ig      =  485596
     temp0   = 310.00000, tempi   = 310.00000, gamma_ln=   5.00000

SHAKE:
     ntc     =       2, jfastw  =       0
     tol     =   0.00001

Ewald parameters:
     verbose =       0, ew_type =       0, nbflag  =       1, use_pme =       1
     vdwmeth =       0, eedmeth =       1, netfrc  =       1
     Box X =  123.876   Box Y =  103.149   Box Z =   88.900
     Alpha =   90.000   Beta  =   90.000   Gamma =   90.000
     NFFT1 =  128       NFFT2 =  108       NFFT3 =   96
     Cutoff=   12.000   Tol   =0.100E-04
     Ewald Coefficient =  0.22664
     Interpolation order =    4

--------------------------------------------------------------------------------
   3.  ATOMIC COORDINATES AND VELOCITIES
--------------------------------------------------------------------------------

 begin time read from input coords =  1070.000 ps

 Number of triangulated 3-point waters found:    33521

     Sum of charges from parm topology file =  -0.00000000
     Forcing neutrality...

--------------------------------------------------------------------------------
   4.  RESULTS
 NSTEP =      500   TIME(PS) =    1072.000  TEMP(K) =   309.39  PRESS =     0.0
 Etot   =   -282225.5788  EKtot   =     73143.1094  EPtot      =   -355368.6882
 BOND   =      3623.8673  ANGLE   =      8058.8336  DIHED      =      9623.1909
 UB     =       954.0091  IMP     =       544.4643  CMAP       =      -621.3639
 1-4 NB =      2532.9459  1-4 EEL =     39386.8024  VDWAALS    =     28744.2497
 EELEC  =   -448215.6876  EHBOND  =         0.0000  RESTRAINT  =         0.0000
 ------------------------------------------------------------------------------

      A V E R A G E S   O V E R      40 S T E P S

 NSTEP =    20000   TIME(PS) =    1150.000  TEMP(K) =   309.78  PRESS =     0.0
 Etot   =   -282232.6054  EKtot   =     73235.6328  EPtot      =   -355468.2382
 BOND   =      3666.3182  ANGLE   =      8034.3622  DIHED      =      9646.6728
 UB     =       940.2904  IMP     =       559.8773  CMAP       =      -603.8483
 1-4 NB =      2534.7811  1-4 EEL =     39344.5576  VDWAALS    =     28648.5603
 EELEC  =   -448239.8098  EHBOND  =         0.0000  RESTRAINT  =         0.0000
 ------------------------------------------------------------------------------

      R M S  F L U C T U A T I O N S

 NSTEP =    20000   TIME(PS) =    1150.000  TEMP(K) =     0.93  PRESS =     0.0
 Etot   =       317.6485  EKtot   =       218.8533  EPtot      =       280.5257
 BOND   =        54.6637  ANGLE   =        55.0098  DIHED      =        36.5117
 UB     =        14.8229  IMP     =        14.8129  CMAP       =        20.0368
 1-4 NB =        25.0170  1-4 EEL =        72.3185  VDWAALS    =       254.5724
 EELEC  =       391.1897  EHBOND  =         0.0000  RESTRAINT  =         0.0000
 ------------------------------------------------------------------------------
