-------------------------------------------------------
          Amber 16 PMEMD                              2016
          -------------------------------------------------------

  [-O]verwriting output

File Assignments:

 Here is the input file:

AADH reference trajectory: 20ps MD
&cntrl
  imin   = 0,                    ! INP Standard MD, no minimization
  irest  = 1,                    ! INP Restart simulation
  ntx    = 5,                    ! INP Read in coordinates and velocities
  ntpr   = 500,                  ! OUT print frequencey for energy info to mdou
  ntc    = 2,                    ! RESTRAINTS SHAKE for TIP3P
  nscm   = 1000,                 ! MD frequency to remove C.o.M motion
  dt     = 0.004,                ! MD timestep
  nrespa = 1,                    ! MD RESPA time step.  Keep nrespa * dt <= 4
  nstlim = 20000,                 ! MD Number of time steps
!  tempi  = 310.0,                  ! TEMP initial temperature
!  temp0  = 310.0,                ! TEMP final temperature
  ntt    = 0,                    ! TEMP Temp control 3 = Langevin, 0 = NVE
!  gamma_ln = 5.0,                ! TEMP collision frequency
  ntf    = 2,                    ! POTENTIAL omit H-atoms in potential evaluati
  ntb    = 1,                    ! POTENTIAL Constant Volume PBC for non-bonded
  cut    = 10.0,                 ! POTENTIAL Non-bonded cutoff
  fswitch = 8.0,                ! POTENTIAL Switching function start length
/

Note: ig = -1. Setting random seed to   487395 based on wallclock time in
      microseconds.

--------------------------------------------------------------------------------
   1.  RESOURCE   USE:
--------------------------------------------------------------------------------

 getting new box info from bottom of inpcrd
 NATOM  =  115183 NTYPES =      45 NBONH =  107615 MBONA  =    7567
 NTHETH =   49571 MTHETA =   10290 NPHIH =   26934 MPHIA  =   18893
 NHPARM =       0 NPARM  =       0 NNB   =  213960 NRES   =   34667
 NBONA  =    7567 NTHETA =   10290 NPHIA =   18893 NUMBND =      84
 NUMANG =     194 NPTRA  =     454 NATYP =       1 NPHB   =       0
 IFBOX  =       1 NMXRS  =      45 IFCAP =       0 NEXTRA =       0
 NCOPY  =       0

     BOX TYPE: RECTILINEAR

--------------------------------------------------------------------------------
   2.  CONTROL  DATA  FOR  THE  RUN
--------------------------------------------------------------------------------

General flags:
     imin    =       0, nmropt  =       0

Nature and format of input:
     ntx     =       5, irest   =       1, ntrx    =       1

Nature and format of output:
     ntxo    =       2, ntpr    =     500, ntrx    =       1, ntwr    =   20000
     iwrap   =       0, ntwx    =       0, ntwv    =       0, ntwe    =       0
     ioutfm  =       1, ntwprt  =       0, idecomp =       0, rbornstat=      0

Potential function:
     ntf     =       2, ntb     =       1, igb     =       0, nsnb    =      25
     ipol    =       0, gbsa    =       0, iesp    =       0
     dielc   =   1.00000, cut     =  10.00000, intdiel =   1.00000

Frozen or restrained atoms:
     ibelly  =       0, ntr     =       0

Molecular dynamics:
     nstlim  =     20000, nscm    =      1000, nrespa  =         1
     t       =   0.00000, dt      =   0.00400, vlimit  =  -1.00000

SHAKE:
     ntc     =       2, jfastw  =       0
     tol     =   0.00001

Ewald parameters:
     verbose =       0, ew_type =       0, nbflag  =       1, use_pme =       1
     vdwmeth =       0, eedmeth =       1, netfrc  =       1
     Box X =  123.876   Box Y =  103.149   Box Z =   88.900
     Alpha =   90.000   Beta  =   90.000   Gamma =   90.000
     NFFT1 =  128       NFFT2 =  108       NFFT3 =   96
     Cutoff=   10.000   Tol   =0.100E-04
     Ewald Coefficient =  0.27511
     Interpolation order =    4

--------------------------------------------------------------------------------
   3.  ATOMIC COORDINATES AND VELOCITIES
--------------------------------------------------------------------------------

 begin time read from input coords =  1070.000 ps

 Number of triangulated 3-point waters found:    33521

     Sum of charges from parm topology file =  -0.00000000
     Forcing neutrality...

--------------------------------------------------------------------------------
   4.  RESULTS
 NSTEP =      500   TIME(PS) =    1072.000  TEMP(K) =   322.87  PRESS =     0.0
 Etot   =   -272967.0015  EKtot   =     76328.4141  EPtot      =   -349295.4156
 BOND   =      4025.2464  ANGLE   =      9193.9131  DIHED      =      9891.1467
 UB     =      1118.0492  IMP     =       642.7110  CMAP       =      -559.1661
 1-4 NB =      2614.2074  1-4 EEL =     39162.6291  VDWAALS    =     31218.8915
 EELEC  =   -446603.0440  EHBOND  =         0.0000  RESTRAINT  =         0.0000
 ------------------------------------------------------------------------------

      A V E R A G E S   O V E R      40 S T E P S

 NSTEP =    20000   TIME(PS) =    1150.000  TEMP(K) =   320.46  PRESS =     0.0
 Etot   =   -272932.6252  EKtot   =     75758.7939  EPtot      =   -348691.4191
 BOND   =      3463.0542  ANGLE   =      8107.0124  DIHED      =      9739.5906
 UB     =       959.4861  IMP     =       568.9598  CMAP       =      -584.1829
 1-4 NB =      2551.8917  1-4 EEL =     39336.1422  VDWAALS    =     30589.9924
 EELEC  =   -443423.3657  EHBOND  =         0.0000  RESTRAINT  =         0.0000
 ------------------------------------------------------------------------------

      R M S  F L U C T U A T I O N S

 NSTEP =    20000   TIME(PS) =    1150.000  TEMP(K) =     0.80  PRESS =     0.0
 Etot   =        20.9535  EKtot   =       190.2459  EPtot      =       193.6441
 BOND   =       165.0614  ANGLE   =       286.4473  DIHED      =        64.2847
 UB     =        43.8469  IMP     =        30.1845  CMAP       =        22.8991
 1-4 NB =        34.0622  1-4 EEL =        99.9146  VDWAALS    =       344.2412
 EELEC  =       921.2425  EHBOND  =         0.0000  RESTRAINT  =         0.0000
 ------------------------------------------------------------------------------
