-------------------------------------------------------
          Amber 16 PMEMD                              2016
          -------------------------------------------------------

  [-O]verwriting output

File Assignments:

 Here is the input file:

AADH test trajectory
&cntrl
  imin   = 0,                    ! INP Standard MD, no minimization
  irest  = 1,                    ! INP Restart simulation
  ntx    = 5,                    ! INP Read in coordinates and velocities
  ntpr   = 1000,                  ! OUT print frequencey for energy info to mdo
  ntwx   = 25,
  ntc    = 2,                    ! RESTRAINTS SHAKE for TIP3P
  nscm   = 1000,                 ! MD frequency to remove C.o.M motion
  dt     = 0.004,                ! MD timestep
  nrespa = 1,                    ! MD RESPA time step.  Keep nrespa * dt <= 4
  nstlim = 125000,                 ! MD Number of time steps
  tempi  = 310.0,                  ! TEMP initial temperature
  temp0  = 310.0,                ! TEMP final temperature
  ntt    = 3,                    ! TEMP Temp control 3 = Langevin, 0 = NVE
  gamma_ln = 5.0,                ! TEMP collision frequency
  ntf    = 2,                    ! POTENTIAL omit H-atoms in potential evaluati
  ntb    = 1,                    ! POTENTIAL Constant Volume PBC for non-bonded
  cut    = 12.0,                 ! POTENTIAL Non-bonded cutoff
  fswitch = 10.0,                ! POTENTIAL Switching function start length
/

Note: ig = -1. Setting random seed to   693404 based on wallclock time in
      microseconds.

--------------------------------------------------------------------------------
   1.  RESOURCE   USE:
--------------------------------------------------------------------------------

 getting new box info from bottom of inpcrd
 NATOM  =  115183 NTYPES =      45 NBONH =  107615 MBONA  =    7567
 NTHETH =   49571 MTHETA =   10290 NPHIH =   26934 MPHIA  =   18893
 NHPARM =       0 NPARM  =       0 NNB   =  213960 NRES   =   34667
 NBONA  =    7567 NTHETA =   10290 NPHIA =   18893 NUMBND =      84
 NUMANG =     194 NPTRA  =     454 NATYP =       1 NPHB   =       0
 IFBOX  =       1 NMXRS  =      45 IFCAP =       0 NEXTRA =       0
 NCOPY  =       0

     BOX TYPE: RECTILINEAR

--------------------------------------------------------------------------------
   2.  CONTROL  DATA  FOR  THE  RUN
--------------------------------------------------------------------------------

General flags:
     imin    =       0, nmropt  =       0

Nature and format of input:
     ntx     =       5, irest   =       1, ntrx    =       1

Nature and format of output:
     ntxo    =       2, ntpr    =    1000, ntrx    =       1, ntwr    =  125000
     iwrap   =       0, ntwx    =      25, ntwv    =       0, ntwe    =       0
     ioutfm  =       1, ntwprt  =       0, idecomp =       0, rbornstat=      0

Potential function:
     ntf     =       2, ntb     =       1, igb     =       0, nsnb    =      25
     ipol    =       0, gbsa    =       0, iesp    =       0
     dielc   =   1.00000, cut     =  12.00000, intdiel =   1.00000

Frozen or restrained atoms:
     ibelly  =       0, ntr     =       0

Molecular dynamics:
     nstlim  =    125000, nscm    =      1000, nrespa  =         1
     t       =   0.00000, dt      =   0.00400, vlimit  =  -1.00000

Langevin dynamics temperature regulation:
     ig      =  693404
     temp0   = 310.00000, tempi   = 310.00000, gamma_ln=   5.00000

SHAKE:
     ntc     =       2, jfastw  =       0
     tol     =   0.00001

Ewald parameters:
     verbose =       0, ew_type =       0, nbflag  =       1, use_pme =       1
     vdwmeth =       0, eedmeth =       1, netfrc  =       1
     Box X =  123.876   Box Y =  103.149   Box Z =   88.900
     Alpha =   90.000   Beta  =   90.000   Gamma =   90.000
     NFFT1 =  128       NFFT2 =  108       NFFT3 =   96
     Cutoff=   12.000   Tol   =0.100E-04
     Ewald Coefficient =  0.22664
     Interpolation order =    4

--------------------------------------------------------------------------------
   3.  ATOMIC COORDINATES AND VELOCITIES
--------------------------------------------------------------------------------

 begin time read from input coords =  1070.000 ps

 Number of triangulated 3-point waters found:    33521

     Sum of charges from parm topology file =  -0.00000000
     Forcing neutrality...

--------------------------------------------------------------------------------
   4.  RESULTS
 NSTEP =     1000   TIME(PS) =    1074.000  TEMP(K) =   310.26  PRESS =     0.0
 Etot   =   -282007.2057  EKtot   =     73347.9141  EPtot      =   -355355.1198
 BOND   =      3640.0596  ANGLE   =      7991.4291  DIHED      =      9646.5094
 UB     =       941.9046  IMP     =       542.9857  CMAP       =      -596.3579
 1-4 NB =      2582.2270  1-4 EEL =     39461.9702  VDWAALS    =     29084.2025
 EELEC  =   -448650.0500  EHBOND  =         0.0000  RESTRAINT  =         0.0000
 ------------------------------------------------------------------------------

      A V E R A G E S   O V E R     125 S T E P S

 NSTEP =   125000   TIME(PS) =    1570.000  TEMP(K) =   310.19  PRESS =     0.0
 Etot   =   -282100.0001  EKtot   =     73332.3894  EPtot      =   -355432.3895
 BOND   =      3679.6531  ANGLE   =      8022.7460  DIHED      =      9645.7226
 UB     =       941.7662  IMP     =       559.1844  CMAP       =      -589.1087
 1-4 NB =      2533.2472  1-4 EEL =     39277.4877  VDWAALS    =     28594.7176
 EELEC  =   -448097.8056  EHBOND  =         0.0000  RESTRAINT  =         0.0000
 ------------------------------------------------------------------------------

      R M S  F L U C T U A T I O N S

 NSTEP =   125000   TIME(PS) =    1570.000  TEMP(K) =     0.89  PRESS =     0.0
 Etot   =       365.3822  EKtot   =       209.7525  EPtot      =       303.9300
 BOND   =        57.5245  ANGLE   =        69.3574  DIHED      =        38.8480
 UB     =        14.0900  IMP     =        17.0546  CMAP       =        20.6525
 1-4 NB =        24.7590  1-4 EEL =        92.3970  VDWAALS    =       316.3744
 EELEC  =       447.7879  EHBOND  =         0.0000  RESTRAINT  =         0.0000
 ------------------------------------------------------------------------------
